case3.dss
Clear 

new circuit.case3
~ basekv=11.4 pu=1.000 phases=3 bus1=SourceBus 
~ Angle=0     BaseFreq=60                                           
~ MVAsc3=250 MVASC1=250   

! LINECODES
redirect TP_LineCodes.dss

! LINE DEFINITIONS 
New Line.01    Phases=3  Bus1=SourceBus.1.2.3  Bus2=2.1.2.3   LineCode=500MCM  Length=2.1   units= km  
New Line.02    Phases=3  Bus1=2.1.2.3          Bus2=3.1.2.3   LineCode=477MCM  Length=0.6   units= km    
New Line.03    Phases=3  Bus1=3.1.2.3          Bus2=4.1.2.3   LineCode=477MCM  Length=0.6   units= km 
New Line.04    Phases=3  Bus1=4.1.2.3          Bus2=5.1.2.3   LineCode=500MCM  Length=0.9   units= km    
New Line.05    Phases=3  Bus1=5.1.2.3          Bus2=6.1.2.3   LineCode=477MCM  Length=3.9   units= km  
New Line.06    Phases=3  Bus1=6.1.2.3          Bus2=7.1.2.3   LineCode=477MCM  Length=2.2   units= km  
New Line.07    Phases=3  Bus1=7.1.2.3          Bus2=8.1.2.3   LineCode=477MCM  Length=1.0   units= km    
New Line.08    Phases=3  Bus1=8.1.2.3          Bus2=9.1.2.3   LineCode=477MCM  Length=0.8   units= km 
New Line.09    Phases=3  Bus1=9.1.2.3          Bus2=10.1.2.3  LineCode=#2      Length=1.0   units= km 

! LOAD DEFINITIONS 
New Load.1 Bus1=3.1.2.3   Phases=3   Conn=Delta  Model=1  kV=11.4   kW=1550     kvar=700      vmaxpu=1.5 vminpu=0.7
New Load.2 Bus1=4.1.2.3   Phases=3   Conn=Delta  Model=1  kV=11.4   kW=1550     kvar=700      vmaxpu=1.5 vminpu=0.7
New Load.3 Bus1=6.1.2.3   Phases=3   Conn=Delta  Model=1  kV=11.4   kW=1400     kvar=459.24   vmaxpu=1.5 vminpu=0.7
New Load.4 Bus1=8.1.2.3   Phases=3   Conn=Delta  Model=1  kV=11.4   kW=673      kvar=220.76   vmaxpu=1.5 vminpu=0.7

! PV
New Load.5 Bus1=10.1.2.3  Phases=3   Conn=Delta  Model=1  kV=11.4   kW=-997.92  kvar=0        vmaxpu=1.5 vminpu=0.7

! CAPACITOR DEFINITIONS
New Capacitor.C1       Bus1=7.1.2.3      Phases=3     kVAR=600     kV=11.4
 
Set Voltagebases=[11.4]
calcv
Solve

Show Voltages LN Nodes
! Show Powers kVA Elem
